trunk/Version8/Distrib/Examples/ADiakoptics/EPRI_Ckt5-G/Torn_Circuit/Master.DSS
Clear
New Circuit.ckt5


Redirect Vsource.dss
Redirect WireData.dss
Redirect LineGeometry.dss
Redirect LineCode.dss
Redirect LoadShape.dss
Redirect GrowthShape.dss
Redirect TCC_Curve.dss
Redirect Spectrum.dss
Redirect Line.dss
Redirect Load.dss
Redirect Transformer.dss
Redirect Reactor.dss
MakeBusList
Redirect BusVoltageBases.dss  ! set voltage bases
Buscoords BusCoords.dss
GIScoords GISCoords.dss
